[General]
network = simulation_examples.simulations.node_sim.SingleNodeNetwork
sim-time-limit = 70s
