[General]
network = simulation_examples.simulations.mechostdyn_test.MECHOSTDYN_test1
sim-time-limit = 70s

num-rngs = 3

###
#	LTE configuration
###

# Number of Resource Blocks
**.numBands = 25 

# Transmission Power
**.ueTxPower = 26
**.eNodeBTxPower = 46

###
#	Nodes configuration
###
**.mechost.*.macNodeId = 0

*.mechost.*.cellularNic.nrPhy.dynamicCellAssociation = true
*.mechost.*.masterId = 0     # ignored if dynamic association is disabled
*.mechost.*.macCellId = 0    # ignored if dynamic association is disabled
*.mechost.*.nrMasterId = 1     # ignored if dynamic association is disabled
*.mechost.*.nrMacCellId = 1    # ignored if dynamic association is disabled

**.gNodeB1.macCellId = 1
**.gNodeB1.macNodeId = 1

**.mechost.*.mobility.initFromDisplayString = false
**.mechost.*.mobility.initialX = 380m
**.mechost.*.mobility.initialY = 150m
**.mechost.*.mobility.initialZ = 0m

*.car.mobilityType = "LinearMobility"
**.car.mobility.initialX = 100m
**.car.mobility.initialY = 250m
**.car.mobility.initialMovementHeading = 0deg
**.car.mobility.speed = 10mps

*.car2.mobilityType = "LinearMobility"
**.car2.mobility.initialMovementHeading = 0deg
**.car2.mobility.speed = 10mps

*.fakeclient.mobilityType = "LinearMobility"
**.fakeclient.mobility.initialMovementHeading = 0deg
**.fakeclient.mobility.speed = 10mps

*.fakeclient2.mobilityType = "LinearMobility"
**.fakeclient2.mobility.initialMovementHeading = 90deg
**.fakeclient2.mobility.speed = 10mps

*.car*.cellularNic.nrPhy.dynamicCellAssociation = true
*.car*.masterId = 0     # ignored if dynamic association is disabled
*.car*.macCellId = 0    # ignored if dynamic association is disabled
*.car*.nrMasterId = 1     # ignored if dynamic association is disabled
*.car*.nrMacCellId = 1    # ignored if dynamic association is disabled

*.fakeclient*.cellularNic.nrPhy.dynamicCellAssociation = true
*.fakeclient*.masterId = 0     # ignored if dynamic association is disabled
*.fakeclient*.macCellId = 0    # ignored if dynamic association is disabled
*.fakeclient*.nrMasterId = 1     # ignored if dynamic association is disabled
*.fakeclient*.nrMacCellId = 1    # ignored if dynamic association is disabled

#**.amcMode = "D2D"
#*.car.cellularNic.d2dInitialMode = true
#*.viManager.cellularNic.d2dInitialMode = true
#
#*.gNodeB1.cellularNic.nrPhy.enableD2DCqiReporting = true
#**.usePreconfiguredTxParams = false

## MeHost resources
**.mechost.maxMECApps = 100	

**.mechost.eNBList = "gNodeB1"

## MecPlatform settings
**.mechost.mecPlatform.numMecServices = 1
**.mechost.mecPlatform.mecService[0].typename = "LocationService"
**.mechost.mecPlatform.mecService[0].localAddress = "mechost.mecPlatform" #da cambiare!!
**.mechost.mecPlatform.mecService[0].localPort = 10020

**.mechost.mecPlatform.mecService[0].rng-1 = 1 # subscription service time
**.mechost.mecPlatform.mecService[0].rng-0 = 0 # request service time
**.mechost.mecPlatform.mecService[0].requestServiceTime = 100us
**.mechost.mecPlatform.mecService[0].subscriptionServiceTime = 11us

**.mechost.mecPlatform.serviceRegistry.localAddress = "mechost.mecPlatform" #da cambiare!!
**.mechost.mecPlatform.serviceRegistry.localPort = 10021

**.mechost.mecPlatform.serviceRegistry.rng-1 = 1 # subscription service time
**.mechost.mecPlatform.serviceRegistry.rng-0 = 0 # request service time


###
#	App configuration
###
*.mechost.vim.app[0].localAddress = "mechost.vim" 
*.mechost.vim.app[0].serverDestAddress = "mechost.vim"
*.mechost.vim.app[0].brokerAddress = "server"
*.mechost.vim.app[0].searchType = "ROUND_ROBIN"
*.mechost.vim.app[1].localAddress = "mechost.vim"
*.mechost.vim.app[1].vimAddress = "mechost.vim"
*.mechost.vim.app[1].vimPort = 3333
*.mechost.mecPlatformManager.app[0].localAddress = "mechost.mecPlatformManager"
*.mechost.mecPlatformManager.app[0].mecOrchestratorPort = 3300
*.mechost.mecPlatformManager.app[0].mecOrchestratorAddress = "mechost.vim"
*.mechost.color = "green"

*.car.numApps = 2
*.car.app[0].typename = "VirtualisationInfrastructureApp"
*.car.app[0].localPort = 2222
*.car.app[0].localAddress = "car"
*.car.app[0].vimAddress = "mechost.vim"
*.car.app[0].vimPort = 3333
*.car.app[1].typename = "ClientResourceApp"
*.car.app[1].localPort = 3333
#*.car.app[1].destPort = 3333
*.car.app[1].destAddress = "server" 
*.car.app[1].localAddress = "car"
*.car.app[1].viPort = 2222
*.car.app[1].startTime = 0.05s
*.car.app[1].parkTime = 30s

*.car2.numApps = 2
*.car2.app[0].typename = "VirtualisationInfrastructureApp"
*.car2.app[0].localPort = 2222
*.car2.app[0].localAddress = "car2"
*.car2.app[0].vimAddress = "mechost.vim"
*.car2.app[0].vimPort = 3333
*.car2.app[1].typename = "ClientResourceApp"
*.car2.app[1].localPort = 3333
#*.car2.app[1].destPort = 3333
*.car2.app[1].destAddress = "server" 
*.car2.app[1].localAddress = "car2"
*.car2.app[1].viPort = 2222
*.car2.app[1].startTime = 0.05s
*.car2.app[1].parkTime = 30s

## FAKE CLIENT 2
*.fakeclient.numApps = 2
*.fakeclient.app[0].typename = "InstantiationMecpm"
*.fakeclient.app[0].localPort = 3222
*.fakeclient.app[0].destPort = 3334
*.fakeclient.app[0].destAddress = "mechost.mecPlatformManager" 
*.fakeclient.app[0].localAddress = "fakeclient"
*.fakeclient.app[0].terminate = true
*.fakeclient.app[0].term_delay = 10
*.fakeclient.app[0].start_delay = 1.5
*.fakeclient.app[0].appID = 221
*.fakeclient.app[0].contextID = 0

*.fakeclient.app[1].typename = "UEAppInteractionTester"
*.fakeclient.app[1].localAddress = "fakeclient"
*.fakeclient.app[1].localPort = 4444
*.fakeclient.app[1].targetMecAppAddress = "car" 
*.fakeclient.app[1].targetMecAppPort = 10001
*.fakeclient.app[1].startDelay = 2.0
*.fakeclient.app[1].positionX = 270
*.fakeclient.app[1].positionY = 245
*.fakeclient.app[1].radius = 30

## FAKE CLIENT 2
*.fakeclient2.numApps = 2
*.fakeclient2.app[0].typename = "InstantiationMecpm"
*.fakeclient2.app[0].localPort = 3222
*.fakeclient2.app[0].destPort = 3334
*.fakeclient2.app[0].destAddress = "mechost.mecPlatformManager" 
*.fakeclient2.app[0].localAddress = "fakeclient2"
*.fakeclient2.app[0].terminate = false
*.fakeclient2.app[0].term_delay = 3.0
*.fakeclient2.app[0].start_delay = 2.0 
*.fakeclient2.app[0].appID = 222
*.fakeclient2.app[0].contextID = 1

*.fakeclient2.app[1].typename = "UEAppInteractionTester"
*.fakeclient2.app[1].localAddress = "fakeclient"
*.fakeclient2.app[1].localPort = 4444
*.fakeclient2.app[1].targetMecAppAddress = "car2" 
*.fakeclient2.app[1].targetMecAppPort = 10001
*.fakeclient2.app[1].startDelay = 5.0
*.fakeclient2.app[1].positionX = 542
*.fakeclient2.app[1].positionY = 230
*.fakeclient2.app[1].radius = 30

####

*.server.numApps = 2
*.server.app[0].typename = "HttpBrokerApp"
*.server.app[1].typename = "ResourceRegisterApp"
*.server.app[1].startTime = 0.02s

